Network_data/Greensboro_GSO_urban_SH_BH/uhs0_1247/uhs0_1247--udt16115/analysis/peak_line_overloads.csv
Loading (p.u.),Name,Bus1,Bus2
1.0442003184666306,Line.l(r:udm3425-udt822lv),udt822lv.1.2,udm3425.1.2
1.5756875053455157,Line.l(r:p1ulv47472-udm3425),udm3425.1.2,p1ulv47472.1.2
2.6042937560905064,Line.l(r:p1ulv44559-udt17395lv),udt17395lv.1.2,p1ulv44559.1.2
2.7221780237503364,Line.l(r:p1ulv35521-udt14422lv),udt14422lv.1.2,p1ulv35521.1.2
3.112111577856296,Line.l(r:p1ulv1637-udt835lv),udt835lv.1.2,p1ulv1637.1.2
3.126419136332448,Line.l(r:p1ulv50398-udt14422lv),udt14422lv.1.2,p1ulv50398.1.2
